      1 'GENCLS' 1      1.120        1.000    /
      1 'GENCLS' 2      4.560        1.000    /
      2 'GENCLS' 1      1.120        1.000    /
      2 'GENCLS' 2      4.560        1.000    /
      7 'GENCLS' 1      8.400        1.000    /
     13 'GENCLS' 1     16.548        1.000    /
     13 'GENCLS' 2 999900.000        1.000    /
     14 'GENCLS' 1      5.600        1.000    /
     15 'GENCLS' 1      1.680        1.000    /
     15 'GENCLS' 2      4.650        1.000    /
     16 'GENCLS' 1      4.650        1.000    /
     18 'GENCLS' 1     20.000        1.000    /
     21 'GENCLS' 1     20.000        1.000    /
     22 'GENCLS' 1     10.500        1.000    /
     23 'GENCLS' 1      9.300        1.000    /
     23 'GENCLS' 2     10.500        1.000    /
