      1 'GENCLS' 1     3.0000       1.0000    /
      2 'GENCLS' 1     6.0000       1.0000    /
