      1 'GENCLS' 1     6.0000       2.0000    /
      1 'GENCLS' 2     0.0000       0.0000    /
      2 'GENCLS' 1     6.0000       2.0000    /
      3 'GENCLS' 1     6.0000       2.0000    /
      5 'GENCLS' 1     6.0000       2.0000    /
      7 'GENCLS' 1     6.0000       2.0000    /
      9 'GENCLS' 1     6.0000       2.0000    /	  