      1 'GENCLS' 1     6.0000       1.0000    /
      1 'GENCLS' 2    0.99990E+06   0.0000    /
      2 'GENCLS' 1     6.0000       1.0000    /
      3 'GENCLS' 1     6.0000       1.0000    /
