     30 'GENCLS' 1     42.000       20.2000    /
     31 'GENCLS' 1     30.300       20.2000    /
     32 'GENCLS' 1     35.800       20.2000    /
     33 'GENCLS' 1     28.600       20.2000    /
     34 'GENCLS' 1     26.000       20.2000    /
     35 'GENCLS' 1     34.800       20.2000    /
     36 'GENCLS' 1     26.400       20.2000    /
     37 'GENCLS' 1     24.300       20.2000    /
     38 'GENCLS' 1     34.500       20.2000    /
     39 'GENCLS' 1      0.000       20.0000    /
